.include tsmc.txt
*resistor connected between nodes 1 and 2
.SUBCKT CMOSINV 1 2 
M1 2 1 0 0 CMOSN W=10u
M2 2 4 3 3 CMOSP W=1u
Cd 2 0 10nF
VDD 3 0 DC 10v
VGG 4 0 DC 0.9v
.ENDS CMOSINV

X1 1 2 CMOSINV
X2 2 3 CMOSINV
X3 3 1 CMOSINV
.ic V(1)=0

*V1 1 0 DC 0v
*.dc v1 0 3 0.05
*transient analysis for 20ms, step size 0.02ms
.tran 0.002ms 2ms

*defining the run-time control functions
.control

run
*plotting input and output voltages
plot v(1) v(2) v(3)
*plot v(2) 
*plot v(3)
.endc
.end
