*Model file for ALD1106 and ALD1107
*SPICE Level 1
*Created by: Debapratim Ghosh, IIT Bombay
*Date: 12 Dec 2013

.MODEL ALD1106 NMOS (LEVEL=1 CBD=0.5p CBS=0.5p CGDO=0.1p CGSO=0.1p GAMMA=.85
+ KP=519.2u L=10E-6 LAMBDA=0.029 PHI=.9 VTO=0.8 W=20E-6)

.MODEL ALD1107 PMOS (LEVEL=1 CBD=0.5p CBS=0.5p CGDO=0.1p CGSO=0.1p GAMMA=.45
+ KP=206u L=10E-6 LAMBDA=0.0304 PHI=.8 VTO=-0.82 W=20E-6)
